* NGSPICE file created from func_gen_8_connected.ext - technology: sky130A

.subckt memory_8 word0 word1 word2 word3 word4 word5 word6 word7 word8 word9 word10
+ word11 word12 word13 word14 word15 word16 word17 word18 word19 word20 word21 word22
+ word23 word24 word25 word26 word27 word28 word29 word30 word31 word32 word33 word34
+ word35 word36 word37 word38 word39 word40 word41 word42 word43 word44 word45 word46
+ word47 word48 word49 word50 word51 word52 word53 word54 word55 word56 word57 word58
+ word59 word60 word61 word62 word63 word64 word65 word66 word67 word68 word69 word70
+ word71 word72 word73 word74 word75 word76 word77 word78 word79 word80 word81 word82
+ word83 word84 word85 word86 word87 word88 word89 word90 word91 word92 word93 word94
+ word95 word96 word97 word98 word99 word100 word101 word102 word103 word104 word105
+ word106 word107 word108 word109 word110 word111 word112 word113 word114 word115
+ word116 word117 word118 word119 word120 word121 word122 word123 word124 word125
+ word126 word127 word128 word129 word130 word131 word132 word133 word134 word135
+ word136 word137 word138 word139 word140 word141 word142 word143 word144 word145
+ word146 word147 word148 word149 word150 word151 word152 word153 word154 word155
+ word156 word157 word158 word159 word160 word161 word162 word163 word164 word165
+ word166 word167 word168 word169 word170 word171 word172 word173 word174 word175
+ word176 word177 word178 word179 word180 word181 word182 word183 word184 word185
+ word186 word187 word188 word189 word190 word191 word192 word193 word194 word195
+ word196 word197 word198 word199 word200 word201 word202 word203 word204 word205
+ word206 word207 word208 word209 word210 word211 word212 word213 word214 word215
+ word216 word217 word218 word219 word220 word221 word222 word223 word224 word225
+ word226 word227 word228 word229 word230 word231 word232 word233 word234 word235
+ word236 word237 word238 word239 word240 word241 word242 word243 word244 word245
+ word246 word247 word248 word249 word250 word251 word252 word253 word254 word255
+ word256 word257 word258 word259 word260 word261 word262 word263 word264 word265
+ word266 word267 word268 word269 word270 word271 word272 word273 word274 word275
+ word276 word277 word278 word279 word280 word281 word282 word283 word284 word285
+ word286 word287 word288 word289 word290 word291 word292 word293 word294 word295
+ word296 word297 word298 word299 word300 word301 word302 word303 word304 word305
+ word306 word307 word308 word309 word310 word311 word312 word313 word314 word315
+ word316 word317 word318 word319 word320 word321 word322 word323 word324 word325
+ word326 word327 word328 word329 word330 word331 word332 word333 word334 word335
+ word336 word337 word338 word339 word340 word341 word342 word343 word344 word345
+ word346 word347 word348 word349 word350 word351 word352 word353 word354 word355
+ word356 word357 word358 word359 word360 word361 word362 word363 word364 word365
+ word366 word367 word368 word369 word370 word371 word372 word373 word374 word375
+ word376 word377 word378 word379 word380 word381 word382 word383 word384 word385
+ word386 word387 word388 word389 word390 word391 word392 word393 word394 word395
+ word396 word397 word398 word399 word400 word401 word402 word403 word404 word405
+ word406 word407 word408 word409 word410 word411 word412 word413 word414 word415
+ word416 word417 word418 word419 word420 word421 word422 word423 word424 word425
+ word426 word427 word428 word429 word430 word431 word432 word433 word434 word435
+ word436 word437 word438 word439 word440 word441 word442 word443 word444 word445
+ word446 word447 word448 word449 word450 word451 word452 word453 word454 word455
+ word456 word457 word458 word459 word460 word461 word462 word463 word464 word465
+ word466 word467 word468 word469 word470 word471 word472 word473 word474 word475
+ word476 word477 word478 word479 word480 word481 word482 word483 word484 word485
+ word486 word487 word488 word489 word490 word491 word492 word493 word494 word495
+ word496 word497 word498 word499 word500 word501 word502 word503 word504 word505
+ word506 word507 word508 word509 word510 word511 word512 word513 word514 word515
+ word516 word517 word518 word519 word520 word521 word522 word523 word524 word525
+ word526 word527 word528 word529 word530 word531 word532 word533 word534 word535
+ word536 word537 word538 word539 word540 word541 word542 word543 word544 word545
+ word546 word547 word548 word549 word550 word551 word552 word553 word554 word555
+ word556 word557 word558 word559 word560 word561 word562 word563 word564 word565
+ word566 word567 word568 word569 word570 word571 word572 word573 word574 word575
+ word576 word577 word578 word579 word580 word581 word582 word583 word584 word585
+ word586 word587 word588 word589 word590 word591 word592 word593 word594 word595
+ word596 word597 word598 word599 word600 word601 word602 word603 word604 word605
+ word606 word607 word608 word609 word610 word611 word612 word613 word614 word615
+ word616 word617 word618 word619 word620 word621 word622 word623 word624 word625
+ word626 word627 word628 word629 word630 word631 word632 word633 word634 word635
+ word636 word637 word638 word639 word640 word641 word642 word643 word644 word645
+ word646 word647 word648 word649 word650 word651 word652 word653 word654 word655
+ word656 word657 word658 word659 word660 word661 word662 word663 word664 word665
+ word666 word667 word668 word669 word670 word671 word672 word673 word674 word675
+ word676 word677 word678 word679 word680 word681 word682 word683 word684 word685
+ word686 word687 word688 word689 word690 word691 word692 word693 word694 word695
+ word696 word697 word698 word699 word700 word701 word702 word703 word704 word705
+ word706 word707 word708 word709 word710 word711 word712 word713 word714 word715
+ word716 word717 word718 word719 word720 word721 word722 word723 word724 word725
+ word726 word727 word728 word729 word730 word731 word732 word733 word734 word735
+ word736 word737 word738 word739 word740 word741 word742 word743 word744 word745
+ word746 word747 word748 word749 word750 word751 word752 word753 word754 word755
+ word756 word757 word758 word759 word760 word761 word762 word763 word764 word765
+ word766 word767 word768 word769 word770 word771 word772 word773 word774 word775
+ word776 word777 word778 word779 word780 word781 word782 word783 word784 word785
+ word786 word787 word788 word789 word790 word791 word792 word793 word794 word795
+ word796 word797 word798 word799 word800 word801 word802 word803 word804 word805
+ word806 word807 word808 word809 word810 word811 word812 word813 word814 word815
+ word816 word817 word818 word819 word820 word821 word822 word823 word824 word825
+ word826 word827 word828 word829 word830 word831 word832 word833 word834 word835
+ word836 word837 word838 word839 word840 word841 word842 word843 word844 word845
+ word846 word847 word848 word849 word850 word851 word852 word853 word854 word855
+ word856 word857 word858 word859 word860 word861 word862 word863 word864 word865
+ word866 word867 word868 word869 word870 word871 word872 word873 word874 word875
+ word876 word877 word878 word879 word880 word881 word882 word883 word884 word885
+ word886 word887 word888 word889 word890 word891 word892 word893 word894 word895
+ word896 word897 word898 word899 word900 word901 word902 word903 word904 word905
+ word906 word907 word908 word909 word910 word911 word912 word913 word914 word915
+ word916 word917 word918 word919 word920 word921 word922 word923 word924 word925
+ word926 word927 word928 word929 word930 word931 word932 word933 word934 word935
+ word936 word937 word938 word939 word940 word941 word942 word943 word944 word945
+ word946 word947 word948 word949 word950 word951 word952 word953 word954 word955
+ word956 word957 word958 word959 word960 word961 word962 word963 word964 word965
+ word966 word967 word968 word969 word970 word971 word972 word973 word974 word975
+ word976 word977 word978 word979 word980 word981 word982 word983 word984 word985
+ word986 word987 word988 word989 word990 word991 word992 word993 word994 word995
+ word996 word997 word998 word999 word1000 word1001 word1002 word1003 word1004 word1005
+ word1006 word1007 word1008 word1009 word1010 word1011 word1012 word1013 word1014
+ word1015 word1016 word1017 word1018 word1019 word1020 word1021 word1022 word1023
+ Y7 Y6 Y5 Y4 Y3 Y2 Y1 Y0 GND VDD
X0 Y0 word590 GND GND sky130_fd_pr__nfet_01v8 ad=0.2244 pd=1.9 as=0.4116 ps=2.71 w=0.51 l=0.17
X1 GND word1003 Y0 GND sky130_fd_pr__nfet_01v8 ad=0.4116 pd=2.71 as=0.1377 ps=1.05 w=0.51 l=0.17
X2 Y3 word702 GND GND sky130_fd_pr__nfet_01v8 ad=0.1377 pd=1.05 as=0.3101 ps=1.945 w=0.51 l=0.17
X3 GND word211 Y3 GND sky130_fd_pr__nfet_01v8 ad=0.3101 pd=1.945 as=0.1377 ps=1.05 w=0.51 l=0.17
X4 Y3 word270 GND GND sky130_fd_pr__nfet_01v8 ad=0.1377 pd=1.05 as=0.43965 ps=2.82 w=0.51 l=0.17
X5 Y4 word996 GND GND sky130_fd_pr__nfet_01v8 ad=0.1377 pd=1.05 as=0.2598 ps=1.79 w=0.51 l=0.17
X6 Y4 word838 GND GND sky130_fd_pr__nfet_01v8 ad=0.2244 pd=1.9 as=0.2598 ps=1.79 w=0.51 l=0.17
X7 GND word207 Y0 GND sky130_fd_pr__nfet_01v8 ad=0.3101 pd=1.945 as=0.1377 ps=1.05 w=0.51 l=0.17
X8 GND word215 Y4 GND sky130_fd_pr__nfet_01v8 ad=0.3101 pd=1.945 as=0.1377 ps=1.05 w=0.51 l=0.17
X9 GND word365 Y0 GND sky130_fd_pr__nfet_01v8 ad=0.4371 pd=2.81 as=0.1377 ps=1.05 w=0.51 l=0.17
X10 Y0 word424 GND GND sky130_fd_pr__nfet_01v8 ad=0.1377 pd=1.05 as=0.2914 ps=1.87 w=0.51 l=0.17
X11 Y3 word638 GND GND sky130_fd_pr__nfet_01v8 ad=0.1377 pd=1.05 as=0.3101 ps=1.945 w=0.51 l=0.17
X12 GND word579 Y6 GND sky130_fd_pr__nfet_01v8 ad=0.2598 pd=1.79 as=0.1377 ps=1.05 w=0.51 l=0.17
X13 Y7 word924 GND GND sky130_fd_pr__nfet_01v8 ad=0.1377 pd=1.05 as=0.3101 ps=1.945 w=0.51 l=0.17
X14 GND word865 Y7 GND sky130_fd_pr__nfet_01v8 ad=0.3101 pd=1.945 as=0.1377 ps=1.05 w=0.51 l=0.17
X15 GND word143 Y0 GND sky130_fd_pr__nfet_01v8 ad=0.3101 pd=1.945 as=0.1377 ps=1.05 w=0.51 l=0.17
X16 GND word867 Y5 GND sky130_fd_pr__nfet_01v8 ad=0.4116 pd=2.71 as=0.1377 ps=1.05 w=0.51 l=0.17
X17 Y5 word808 GND GND sky130_fd_pr__nfet_01v8 ad=0.1377 pd=1.05 as=0.3101 ps=1.945 w=0.51 l=0.17
X18 Y6 word298 GND GND sky130_fd_pr__nfet_01v8 ad=0.1377 pd=1.05 as=0.2598 ps=1.79 w=0.51 l=0.17
X19 Y6 word628 GND GND sky130_fd_pr__nfet_01v8 ad=0.1377 pd=1.05 as=0.2598 ps=1.79 w=0.51 l=0.17
X20 GND word137 Y6 GND sky130_fd_pr__nfet_01v8 ad=0.3101 pd=1.945 as=0.1377 ps=1.05 w=0.51 l=0.17
X21 Y4 word320 GND GND sky130_fd_pr__nfet_01v8 ad=0.1377 pd=1.05 as=0.40905 ps=2.7 w=0.51 l=0.17
X22 Y6 word716 GND GND sky130_fd_pr__nfet_01v8 ad=0.1377 pd=1.05 as=0.3101 ps=1.945 w=0.51 l=0.17
X23 GND word311 Y3 GND sky130_fd_pr__nfet_01v8 ad=0.2931 pd=1.88 as=0.1377 ps=1.05 w=0.51 l=0.17
X24 Y0 word470 GND GND sky130_fd_pr__nfet_01v8 ad=0.1377 pd=1.05 as=0.2914 ps=1.87 w=0.51 l=0.17
X25 GND word625 Y6 GND sky130_fd_pr__nfet_01v8 ad=0.2598 pd=1.79 as=0.1377 ps=1.05 w=0.51 l=0.17
X26 Y0 word248 GND GND sky130_fd_pr__nfet_01v8 ad=0.1377 pd=1.05 as=0.3101 ps=1.945 w=0.51 l=0.17
X27 GND word403 Y6 GND sky130_fd_pr__nfet_01v8 ad=0.3101 pd=1.945 as=0.1377 ps=1.05 w=0.51 l=0.17
X28 GND word913 Y5 GND sky130_fd_pr__nfet_01v8 ad=0.3101 pd=1.945 as=0.1377 ps=1.05 w=0.51 l=0.17
X29 Y7 word748 GND GND sky130_fd_pr__nfet_01v8 ad=0.1377 pd=1.05 as=0.3101 ps=1.945 w=0.51 l=0.17
X30 GND word821 Y6 GND sky130_fd_pr__nfet_01v8 ad=0.2598 pd=1.79 as=0.1377 ps=1.05 w=0.51 l=0.17
X31 GND word185 Y5 GND sky130_fd_pr__nfet_01v8 ad=0.3101 pd=1.945 as=0.1377 ps=1.05 w=0.51 l=0.17
X32 Y7 word224 GND GND sky130_fd_pr__nfet_01v8 ad=0.1377 pd=1.05 as=0.3101 ps=1.945 w=0.51 l=0.17
X33 GND word361 Y4 GND sky130_fd_pr__nfet_01v8 ad=0.4686 pd=3.38 as=0.1377 ps=1.05 w=0.51 l=0.17
X34 GND word511 Y0 GND sky130_fd_pr__nfet_01v8 ad=0.4371 pd=2.81 as=0.2193 ps=1.88 w=0.51 l=0.17
X35 Y4 word632 GND GND sky130_fd_pr__nfet_01v8 ad=0.1377 pd=1.05 as=0.3101 ps=1.945 w=0.51 l=0.17
X36 GND word691 Y4 GND sky130_fd_pr__nfet_01v8 ad=0.3101 pd=1.945 as=0.1377 ps=1.05 w=0.51 l=0.17
X37 GND word623 Y3 GND sky130_fd_pr__nfet_01v8 ad=0.3101 pd=1.945 as=0.1377 ps=1.05 w=0.51 l=0.17
X38 GND word169 Y1 GND sky130_fd_pr__nfet_01v8 ad=0.3101 pd=1.945 as=0.1377 ps=1.05 w=0.51 l=0.17
X39 GND word329 Y7 GND sky130_fd_pr__nfet_01v8 ad=0.2598 pd=1.79 as=0.1377 ps=1.05 w=0.51 l=0.17
X40 Y4 word568 GND GND sky130_fd_pr__nfet_01v8 ad=0.1377 pd=1.05 as=0.3101 ps=1.945 w=0.51 l=0.17
X41 GND word897 Y2 GND sky130_fd_pr__nfet_01v8 ad=0.3101 pd=1.945 as=0.1377 ps=1.05 w=0.51 l=0.17
X42 Y6 word862 GND GND sky130_fd_pr__nfet_01v8 ad=0.1377 pd=1.05 as=0.3101 ps=1.945 w=0.51 l=0.17
X43 GND word385 Y2 GND sky130_fd_pr__nfet_01v8 ad=0.3101 pd=1.945 as=0.2193 ps=1.88 w=0.51 l=0.17
X44 Y3 word736 GND GND sky130_fd_pr__nfet_01v8 ad=0.1377 pd=1.05 as=0.40905 ps=2.7 w=0.51 l=0.17
X45 GND word167 Y5 GND sky130_fd_pr__nfet_01v8 ad=0.3101 pd=1.945 as=0.1377 ps=1.05 w=0.51 l=0.17
X46 Y5 word226 GND GND sky130_fd_pr__nfet_01v8 ad=0.1377 pd=1.05 as=0.3101 ps=1.945 w=0.51 l=0.17
X47 Y2 word894 GND GND sky130_fd_pr__nfet_01v8 ad=0.1377 pd=1.05 as=0.3101 ps=1.945 w=0.51 l=0.17
X48 Y1 word376 GND GND sky130_fd_pr__nfet_01v8 ad=0.2244 pd=1.9 as=0.2914 ps=1.87 w=0.51 l=0.17
X49 Y2 word160 GND GND sky130_fd_pr__nfet_01v8 ad=0.1377 pd=1.05 as=0.3101 ps=1.945 w=0.51 l=0.17
X50 GND word219 Y2 GND sky130_fd_pr__nfet_01v8 ad=0.3101 pd=1.945 as=0.1377 ps=1.05 w=0.51 l=0.17
X51 GND word967 Y6 GND sky130_fd_pr__nfet_01v8 ad=0.2598 pd=1.79 as=0.1377 ps=1.05 w=0.51 l=0.17
X52 Y6 word908 GND GND sky130_fd_pr__nfet_01v8 ad=0.1377 pd=1.05 as=0.3101 ps=1.945 w=0.51 l=0.17
X53 GND word841 Y3 GND sky130_fd_pr__nfet_01v8 ad=0.2598 pd=1.79 as=0.1377 ps=1.05 w=0.51 l=0.17
X54 GND word151 Y1 GND sky130_fd_pr__nfet_01v8 ad=0.3101 pd=1.945 as=0.1377 ps=1.05 w=0.51 l=0.17
X55 Y7 word370 GND GND sky130_fd_pr__nfet_01v8 ad=0.1377 pd=1.05 as=0.3101 ps=1.945 w=0.51 l=0.17
X56 GND word583 Y1 GND sky130_fd_pr__nfet_01v8 ad=0.4116 pd=2.71 as=0.1377 ps=1.05 w=0.51 l=0.17
X57 Y1 word422 GND GND sky130_fd_pr__nfet_01v8 ad=0.2244 pd=1.9 as=0.2914 ps=1.87 w=0.51 l=0.17
X58 GND word639 Y1 GND sky130_fd_pr__nfet_01v8 ad=0.4116 pd=2.71 as=0.1377 ps=1.05 w=0.51 l=0.17
X59 Y7 word700 GND GND sky130_fd_pr__nfet_01v8 ad=0.1377 pd=1.05 as=0.2598 ps=1.79 w=0.51 l=0.17
X60 Y7 word148 GND GND sky130_fd_pr__nfet_01v8 ad=0.1377 pd=1.05 as=0.3101 ps=1.945 w=0.51 l=0.17
X61 Y6 word742 GND GND sky130_fd_pr__nfet_01v8 ad=0.1377 pd=1.05 as=0.3101 ps=1.945 w=0.51 l=0.17
X62 Y3 word718 GND GND sky130_fd_pr__nfet_01v8 ad=0.1377 pd=1.05 as=0.3101 ps=1.945 w=0.51 l=0.17
X63 Y2 word324 GND GND sky130_fd_pr__nfet_01v8 ad=0.1377 pd=1.05 as=0.4116 ps=2.71 w=0.51 l=0.17
X64 Y1 word358 GND GND sky130_fd_pr__nfet_01v8 ad=0.2244 pd=1.9 as=0.2914 ps=1.87 w=0.51 l=0.17
X65 Y1 word688 GND GND sky130_fd_pr__nfet_01v8 ad=0.1377 pd=1.05 as=0.40905 ps=2.7 w=0.51 l=0.17
X66 Y3 word882 GND GND sky130_fd_pr__nfet_01v8 ad=0.2244 pd=1.9 as=0.2598 ps=1.79 w=0.51 l=0.17
X67 GND word313 Y5 GND sky130_fd_pr__nfet_01v8 ad=0.2931 pd=1.88 as=0.1377 ps=1.05 w=0.51 l=0.17
X68 Y0 word766 GND GND sky130_fd_pr__nfet_01v8 ad=0.2244 pd=1.9 as=0.4116 ps=2.71 w=0.51 l=0.17
X69 GND word759 Y4 GND sky130_fd_pr__nfet_01v8 ad=0.3101 pd=1.945 as=0.1377 ps=1.05 w=0.51 l=0.17
X70 Y7 word682 GND GND sky130_fd_pr__nfet_01v8 ad=0.1377 pd=1.05 as=0.2598 ps=1.79 w=0.51 l=0.17
X71 Y2 word818 GND GND sky130_fd_pr__nfet_01v8 ad=0.2244 pd=1.9 as=0.4116 ps=2.71 w=0.51 l=0.17
X72 GND word699 Y5 GND sky130_fd_pr__nfet_01v8 ad=0.3101 pd=1.945 as=0.1377 ps=1.05 w=0.51 l=0.17
X73 GND word795 Y1 GND sky130_fd_pr__nfet_01v8 ad=0.2931 pd=1.88 as=0.2193 ps=1.88 w=0.51 l=0.17
X74 Y5 word418 GND GND sky130_fd_pr__nfet_01v8 ad=0.1377 pd=1.05 as=0.3101 ps=1.945 w=0.51 l=0.17
X75 GND word627 Y1 GND sky130_fd_pr__nfet_01v8 ad=0.4116 pd=2.71 as=0.1377 ps=1.05 w=0.51 l=0.17
X76 GND word235 Y3 GND sky130_fd_pr__nfet_01v8 ad=0.3101 pd=1.945 as=0.1377 ps=1.05 w=0.51 l=0.17
X77 GND word959 Y1 GND sky130_fd_pr__nfet_01v8 ad=0.2931 pd=1.88 as=0.2193 ps=1.88 w=0.51 l=0.17
X78 Y1 word900 GND GND sky130_fd_pr__nfet_01v8 ad=0.1377 pd=1.05 as=0.2598 ps=1.79 w=0.51 l=0.17
X79 Y0 word912 GND GND sky130_fd_pr__nfet_01v8 ad=0.2244 pd=1.9 as=0.4635 ps=3.36 w=0.51 l=0.17
X80 GND word677 Y2 GND sky130_fd_pr__nfet_01v8 ad=0.4686 pd=3.38 as=0.1377 ps=1.05 w=0.51 l=0.17
X81 GND word285 Y4 GND sky130_fd_pr__nfet_01v8 ad=0.3101 pd=1.945 as=0.1377 ps=1.05 w=0.51 l=0.17
X82 GND word435 Y0 GND sky130_fd_pr__nfet_01v8 ad=0.4371 pd=2.81 as=0.1377 ps=1.05 w=0.51 l=0.17
X83 GND word217 Y3 GND sky130_fd_pr__nfet_01v8 ad=0.3101 pd=1.945 as=0.1377 ps=1.05 w=0.51 l=0.17
X84 Y0 word274 GND GND sky130_fd_pr__nfet_01v8 ad=0.1377 pd=1.05 as=0.2914 ps=1.87 w=0.51 l=0.17
X85 Y6 word590 GND GND sky130_fd_pr__nfet_01v8 ad=0.1377 pd=1.05 as=0.2598 ps=1.79 w=0.51 l=0.17
X86 GND word935 Y7 GND sky130_fd_pr__nfet_01v8 ad=0.3101 pd=1.945 as=0.1377 ps=1.05 w=0.51 l=0.17
X87 GND word905 Y4 GND sky130_fd_pr__nfet_01v8 ad=0.3101 pd=1.945 as=0.1377 ps=1.05 w=0.51 l=0.17
X88 Y5 word878 GND GND sky130_fd_pr__nfet_01v8 ad=0.1377 pd=1.05 as=0.3101 ps=1.945 w=0.51 l=0.17
X89 GND word207 Y6 GND sky130_fd_pr__nfet_01v8 ad=0.3101 pd=1.945 as=0.1377 ps=1.05 w=0.51 l=0.17
X90 GND word365 Y6 GND sky130_fd_pr__nfet_01v8 ad=0.3101 pd=1.945 as=0.1377 ps=1.05 w=0.51 l=0.17
X91 Y4 word390 GND GND sky130_fd_pr__nfet_01v8 ad=0.1377 pd=1.05 as=0.3101 ps=1.945 w=0.51 l=0.17
X92 Y0 word540 GND GND sky130_fd_pr__nfet_01v8 ad=0.2244 pd=1.9 as=0.40905 ps=2.7 w=0.51 l=0.17
X93 GND word381 Y3 GND sky130_fd_pr__nfet_01v8 ad=0.4116 pd=2.71 as=0.1377 ps=1.05 w=0.51 l=0.17
X94 Y7 word710 GND GND sky130_fd_pr__nfet_01v8 ad=0.1377 pd=1.05 as=0.3101 ps=1.945 w=0.51 l=0.17
X95 GND word143 Y6 GND sky130_fd_pr__nfet_01v8 ad=0.3101 pd=1.945 as=0.1377 ps=1.05 w=0.51 l=0.17
X96 GND word953 Y0 GND sky130_fd_pr__nfet_01v8 ad=0.4686 pd=3.38 as=0.2193 ps=1.88 w=0.51 l=0.17
X97 GND word775 Y1 GND sky130_fd_pr__nfet_01v8 ad=0.4116 pd=2.71 as=0.1377 ps=1.05 w=0.51 l=0.17
X98 GND word597 Y4 GND sky130_fd_pr__nfet_01v8 ad=0.2598 pd=1.79 as=0.1377 ps=1.05 w=0.51 l=0.17
X99 GND word983 Y5 GND sky130_fd_pr__nfet_01v8 ad=0.3101 pd=1.945 as=0.1377 ps=1.05 w=0.51 l=0.17
X100 GND word887 Y4 GND sky130_fd_pr__nfet_01v8 ad=0.3101 pd=1.945 as=0.1377 ps=1.05 w=0.51 l=0.17
X101 GND word165 Y4 GND sky130_fd_pr__nfet_01v8 ad=0.3101 pd=1.945 as=0.1377 ps=1.05 w=0.51 l=0.17
X102 GND word315 Y0 GND sky130_fd_pr__nfet_01v8 ad=0.4371 pd=2.81 as=0.1377 ps=1.05 w=0.51 l=0.17
X103 Y0 word374 GND GND sky130_fd_pr__nfet_01v8 ad=0.1377 pd=1.05 as=0.2914 ps=1.87 w=0.51 l=0.17
X104 Y3 word588 GND GND sky130_fd_pr__nfet_01v8 ad=0.1377 pd=1.05 as=0.43965 ps=2.82 w=0.51 l=0.17
X105 Y3 word156 GND GND sky130_fd_pr__nfet_01v8 ad=0.1377 pd=1.05 as=0.3101 ps=1.945 w=0.51 l=0.17
X106 Y6 word470 GND GND sky130_fd_pr__nfet_01v8 ad=0.1377 pd=1.05 as=0.2598 ps=1.79 w=0.51 l=0.17
X107 Y7 word874 GND GND sky130_fd_pr__nfet_01v8 ad=0.1377 pd=1.05 as=0.3101 ps=1.945 w=0.51 l=0.17
X108 Y5 word758 GND GND sky130_fd_pr__nfet_01v8 ad=0.1377 pd=1.05 as=0.3101 ps=1.945 w=0.51 l=0.17
X109 Y6 word248 GND GND sky130_fd_pr__nfet_01v8 ad=0.1377 pd=1.05 as=0.3101 ps=1.945 w=0.51 l=0.17
X110 GND word149 Y0 GND sky130_fd_pr__nfet_01v8 ad=0.3101 pd=1.945 as=0.1377 ps=1.05 w=0.51 l=0.17
X111 GND word211 Y4 GND sky130_fd_pr__nfet_01v8 ad=0.3101 pd=1.945 as=0.1377 ps=1.05 w=0.51 l=0.17
X112 Y4 word270 GND GND sky130_fd_pr__nfet_01v8 ad=0.1377 pd=1.05 as=0.2598 ps=1.79 w=0.51 l=0.17
X113 GND word479 Y0 GND sky130_fd_pr__nfet_01v8 ad=0.4371 pd=2.81 as=0.1377 ps=1.05 w=0.51 l=0.17
X114 Y4 word702 GND GND sky130_fd_pr__nfet_01v8 ad=0.1377 pd=1.05 as=0.3101 ps=1.945 w=0.51 l=0.17
X115 GND word261 Y3 GND sky130_fd_pr__nfet_01v8 ad=0.4116 pd=2.71 as=0.1377 ps=1.05 w=0.51 l=0.17
X116 Y0 word420 GND GND sky130_fd_pr__nfet_01v8 ad=0.1377 pd=1.05 as=0.2914 ps=1.87 w=0.51 l=0.17
X117 Y4 word638 GND GND sky130_fd_pr__nfet_01v8 ad=0.1377 pd=1.05 as=0.3101 ps=1.945 w=0.51 l=0.17
X118 GND word987 Y4 GND sky130_fd_pr__nfet_01v8 ad=0.3101 pd=1.945 as=0.2193 ps=1.88 w=0.51 l=0.17
X119 Y0 word198 GND GND sky130_fd_pr__nfet_01v8 ad=0.1377 pd=1.05 as=0.3101 ps=1.945 w=0.51 l=0.17
X120 Y0 word356 GND GND sky130_fd_pr__nfet_01v8 ad=0.1377 pd=1.05 as=0.2914 ps=1.87 w=0.51 l=0.17
X121 Y4 word536 GND GND sky130_fd_pr__nfet_01v8 ad=0.1377 pd=1.05 as=0.2598 ps=1.79 w=0.51 l=0.17
X122 Y7 word856 GND GND sky130_fd_pr__nfet_01v8 ad=0.1377 pd=1.05 as=0.3101 ps=1.945 w=0.51 l=0.17
X123 Y0 word686 GND GND sky130_fd_pr__nfet_01v8 ad=0.2244 pd=1.9 as=0.4116 ps=2.71 w=0.51 l=0.17
X124 GND word929 Y6 GND sky130_fd_pr__nfet_01v8 ad=0.3101 pd=1.945 as=0.1377 ps=1.05 w=0.51 l=0.17
X125 GND word135 Y5 GND sky130_fd_pr__nfet_01v8 ad=0.3101 pd=1.945 as=0.1377 ps=1.05 w=0.51 l=0.17
X126 Y7 word174 GND GND sky130_fd_pr__nfet_01v8 ad=0.1377 pd=1.05 as=0.3101 ps=1.945 w=0.51 l=0.17
X127 GND word461 Y0 GND sky130_fd_pr__nfet_01v8 ad=0.4371 pd=2.81 as=0.1377 ps=1.05 w=0.51 l=0.17
X128 GND word707 Y6 GND sky130_fd_pr__nfet_01v8 ad=0.3101 pd=1.945 as=0.1377 ps=1.05 w=0.51 l=0.17
X129 Y6 word978 GND GND sky130_fd_pr__nfet_01v8 ad=0.1377 pd=1.05 as=0.2598 ps=1.79 w=0.51 l=0.17
X130 GND word221 Y1 GND sky130_fd_pr__nfet_01v8 ad=0.3101 pd=1.945 as=0.1377 ps=1.05 w=0.51 l=0.17
X131 Y7 word440 GND GND sky130_fd_pr__nfet_01v8 ad=0.1377 pd=1.05 as=0.2598 ps=1.79 w=0.51 l=0.17
X132 VDD GND Y5 VDD sky130_fd_pr__pfet_01v8 ad=0.1836 pd=1.74 as=0.1836 ps=1.74 w=0.51 l=0.17
X133 GND word847 Y3 GND sky130_fd_pr__nfet_01v8 ad=0.2931 pd=1.88 as=0.2193 ps=1.88 w=0.51 l=0.17
X134 Y3 word788 GND GND sky130_fd_pr__nfet_01v8 ad=0.1377 pd=1.05 as=0.40905 ps=2.7 w=0.51 l=0.17
X135 GND word1005 Y2 GND sky130_fd_pr__nfet_01v8 ad=0.3101 pd=1.945 as=0.1377 ps=1.05 w=0.51 l=0.17
X136 Y6 word812 GND GND sky130_fd_pr__nfet_01v8 ad=0.1377 pd=1.05 as=0.2598 ps=1.79 w=0.51 l=0.17
X137 GND word753 Y6 GND sky130_fd_pr__nfet_01v8 ad=0.3101 pd=1.945 as=0.1377 ps=1.05 w=0.51 l=0.17
X138 Y0 word668 GND GND sky130_fd_pr__nfet_01v8 ad=0.2244 pd=1.9 as=0.40905 ps=2.7 w=0.51 l=0.17
X139 GND word335 Y2 GND sky130_fd_pr__nfet_01v8 ad=0.2931 pd=1.88 as=0.1377 ps=1.05 w=0.51 l=0.17
X140 Y1 word428 GND GND sky130_fd_pr__nfet_01v8 ad=0.2244 pd=1.9 as=0.2914 ps=1.87 w=0.51 l=0.17
X141 GND word647 Y7 GND sky130_fd_pr__nfet_01v8 ad=0.2598 pd=1.79 as=0.1377 ps=1.05 w=0.51 l=0.17
X142 Y5 word176 GND GND sky130_fd_pr__nfet_01v8 ad=0.1377 pd=1.05 as=0.3101 ps=1.945 w=0.51 l=0.17
X143 GND word215 Y7 GND sky130_fd_pr__nfet_01v8 ad=0.3101 pd=1.945 as=0.1377 ps=1.05 w=0.51 l=0.17
X144 Y1 word326 GND GND sky130_fd_pr__nfet_01v8 ad=0.2244 pd=1.9 as=0.2914 ps=1.87 w=0.51 l=0.17
X145 Y2 word844 GND GND sky130_fd_pr__nfet_01v8 ad=0.2244 pd=1.9 as=0.2598 ps=1.79 w=0.51 l=0.17
X146 Y3 word952 GND GND sky130_fd_pr__nfet_01v8 ad=0.1377 pd=1.05 as=0.4116 ps=2.71 w=0.51 l=0.17
X147 GND word893 Y3 GND sky130_fd_pr__nfet_01v8 ad=0.3101 pd=1.945 as=0.1377 ps=1.05 w=0.51 l=0.17
X148 Y2 word780 GND GND sky130_fd_pr__nfet_01v8 ad=0.1377 pd=1.05 as=0.2598 ps=1.79 w=0.51 l=0.17
X149 GND word169 Y2 GND sky130_fd_pr__nfet_01v8 ad=0.3101 pd=1.945 as=0.1377 ps=1.05 w=0.51 l=0.17
X150 GND word383 Y5 GND sky130_fd_pr__nfet_01v8 ad=0.3101 pd=1.945 as=0.1377 ps=1.05 w=0.51 l=0.17
X151 Y5 word380 GND GND sky130_fd_pr__nfet_01v8 ad=0.1377 pd=1.05 as=0.3101 ps=1.945 w=0.51 l=0.17
X152 Y2 word888 GND GND sky130_fd_pr__nfet_01v8 ad=0.1377 pd=1.05 as=0.3101 ps=1.945 w=0.51 l=0.17
X153 Y2 word376 GND GND sky130_fd_pr__nfet_01v8 ad=0.1377 pd=1.05 as=0.40905 ps=2.7 w=0.51 l=0.17
X154 Y5 word158 GND GND sky130_fd_pr__nfet_01v8 ad=0.1377 pd=1.05 as=0.3101 ps=1.945 w=0.51 l=0.17
X155 Y1 word308 GND GND sky130_fd_pr__nfet_01v8 ad=0.2244 pd=1.9 as=0.2914 ps=1.87 w=0.51 l=0.17
X156 Y5 word488 GND GND sky130_fd_pr__nfet_01v8 ad=0.1377 pd=1.05 as=0.2598 ps=1.79 w=0.51 l=0.17
X157 Y1 word206 GND GND sky130_fd_pr__nfet_01v8 ad=0.1377 pd=1.05 as=0.3101 ps=1.945 w=0.51 l=0.17
X158 GND word583 Y2 GND sky130_fd_pr__nfet_01v8 ad=0.2598 pd=1.79 as=0.1377 ps=1.05 w=0.51 l=0.17
X159 GND word151 Y2 GND sky130_fd_pr__nfet_01v8 ad=0.3101 pd=1.945 as=0.1377 ps=1.05 w=0.51 l=0.17
X160 GND word481 Y2 GND sky130_fd_pr__nfet_01v8 ad=0.3101 pd=1.945 as=0.2193 ps=1.88 w=0.51 l=0.17
X161 Y1 word142 GND GND sky130_fd_pr__nfet_01v8 ad=0.1377 pd=1.05 as=0.3101 ps=1.945 w=0.51 l=0.17
X162 GND word361 Y7 GND sky130_fd_pr__nfet_01v8 ad=0.3101 pd=1.945 as=0.1377 ps=1.05 w=0.51 l=0.17
X163 GND word639 Y2 GND sky130_fd_pr__nfet_01v8 ad=0.3101 pd=1.945 as=0.1377 ps=1.05 w=0.51 l=0.17
X164 Y1 word472 GND GND sky130_fd_pr__nfet_01v8 ad=0.2244 pd=1.9 as=0.2914 ps=1.87 w=0.51 l=0.17
X165 GND word691 Y7 GND sky130_fd_pr__nfet_01v8 ad=0.2598 pd=1.79 as=0.1377 ps=1.05 w=0.51 l=0.17
X166 Y1 word804 GND GND sky130_fd_pr__nfet_01v8 ad=0.2244 pd=1.9 as=0.2914 ps=1.87 w=0.51 l=0.17
X167 Y4 word704 GND GND sky130_fd_pr__nfet_01v8 ad=0.1377 pd=1.05 as=0.40905 ps=2.7 w=0.51 l=0.17
X168 Y2 word688 GND GND sky130_fd_pr__nfet_01v8 ad=0.1377 pd=1.05 as=0.40905 ps=2.7 w=0.51 l=0.17
X169 GND word185 Y3 GND sky130_fd_pr__nfet_01v8 ad=0.3101 pd=1.945 as=0.1377 ps=1.05 w=0.51 l=0.17
X170 GND word673 Y7 GND sky130_fd_pr__nfet_01v8 ad=0.2598 pd=1.79 as=0.1377 ps=1.05 w=0.51 l=0.17
X171 GND word845 Y1 GND sky130_fd_pr__nfet_01v8 ad=0.2931 pd=1.88 as=0.1377 ps=1.05 w=0.51 l=0.17
X172 GND word235 Y4 GND sky130_fd_pr__nfet_01v8 ad=0.3101 pd=1.945 as=0.1377 ps=1.05 w=0.51 l=0.17
X173 GND word385 Y0 GND sky130_fd_pr__nfet_01v8 ad=0.4371 pd=2.81 as=0.1377 ps=1.05 w=0.51 l=0.17
X174 Y0 word1020 GND GND sky130_fd_pr__nfet_01v8 ad=0.1377 pd=1.05 as=0.4635 ps=3.36 w=0.51 l=0.17
X175 GND word167 Y3 GND sky130_fd_pr__nfet_01v8 ad=0.3101 pd=1.945 as=0.1377 ps=1.05 w=0.51 l=0.17
X176 Y3 word226 GND GND sky130_fd_pr__nfet_01v8 ad=0.1377 pd=1.05 as=0.3101 ps=1.945 w=0.51 l=0.17
X177 GND word885 Y7 GND sky130_fd_pr__nfet_01v8 ad=0.3101 pd=1.945 as=0.1377 ps=1.05 w=0.51 l=0.17
X178 Y5 word828 GND GND sky130_fd_pr__nfet_01v8 ad=0.1377 pd=1.05 as=0.3101 ps=1.945 w=0.51 l=0.17
X179 Y0 word798 GND GND sky130_fd_pr__nfet_01v8 ad=0.1377 pd=1.05 as=0.43965 ps=2.82 w=0.51 l=0.17
X180 GND word219 Y0 GND sky130_fd_pr__nfet_01v8 ad=0.3101 pd=1.945 as=0.1377 ps=1.05 w=0.51 l=0.17
X181 GND word891 Y1 GND sky130_fd_pr__nfet_01v8 ad=0.2598 pd=1.79 as=0.1377 ps=1.05 w=0.51 l=0.17
X182 GND word791 Y4 GND sky130_fd_pr__nfet_01v8 ad=0.2598 pd=1.79 as=0.1377 ps=1.05 w=0.51 l=0.17
X183 Y4 word732 GND GND sky130_fd_pr__nfet_01v8 ad=0.1377 pd=1.05 as=0.2598 ps=1.79 w=0.51 l=0.17
X184 Y0 word160 GND GND sky130_fd_pr__nfet_01v8 ad=0.1377 pd=1.05 as=0.3101 ps=1.945 w=0.51 l=0.17
X185 GND word281 Y4 GND sky130_fd_pr__nfet_01v8 ad=0.2931 pd=1.88 as=0.1377 ps=1.05 w=0.51 l=0.17
X186 GND word315 Y6 GND sky130_fd_pr__nfet_01v8 ad=0.2598 pd=1.79 as=0.1377 ps=1.05 w=0.51 l=0.17
X187 Y6 word374 GND GND sky130_fd_pr__nfet_01v8 ad=0.1377 pd=1.05 as=0.3101 ps=1.945 w=0.51 l=0.17
X188 GND word433 Y3 GND sky130_fd_pr__nfet_01v8 ad=0.3101 pd=1.945 as=0.1377 ps=1.05 w=0.51 l=0.17
X189 Y0 word490 GND GND sky130_fd_pr__nfet_01v8 ad=0.1377 pd=1.05 as=0.2914 ps=1.87 w=0.51 l=0.17
X190 Y5 word884 GND GND sky130_fd_pr__nfet_01v8 ad=0.1377 pd=1.05 as=0.3101 ps=1.945 w=0.51 l=0.17
X191 Y3 word272 GND GND sky130_fd_pr__nfet_01v8 ad=0.1377 pd=1.05 as=0.40905 ps=2.7 w=0.51 l=0.17
X192 GND word719 Y7 GND sky130_fd_pr__nfet_01v8 ad=0.3101 pd=1.945 as=0.1377 ps=1.05 w=0.51 l=0.17
X193 GND word217 Y4 GND sky130_fd_pr__nfet_01v8 ad=0.3101 pd=1.945 as=0.1377 ps=1.05 w=0.51 l=0.17
X194 Y4 word998 GND GND sky130_fd_pr__nfet_01v8 ad=0.1377 pd=1.05 as=0.2598 ps=1.79 w=0.51 l=0.17
X195 GND word903 Y0 GND sky130_fd_pr__nfet_01v8 ad=0.4116 pd=2.71 as=0.1377 ps=1.05 w=0.51 l=0.17
X196 Y0 word426 GND GND sky130_fd_pr__nfet_01v8 ad=0.1377 pd=1.05 as=0.2914 ps=1.87 w=0.51 l=0.17
X197 GND word581 Y6 GND sky130_fd_pr__nfet_01v8 ad=0.2598 pd=1.79 as=0.1377 ps=1.05 w=0.51 l=0.17
X198 Y4 word896 GND GND sky130_fd_pr__nfet_01v8 ad=0.1377 pd=1.05 as=0.3101 ps=1.945 w=0.51 l=0.17
X199 GND word149 Y6 GND sky130_fd_pr__nfet_01v8 ad=0.3101 pd=1.945 as=0.1377 ps=1.05 w=0.51 l=0.17
X200 GND word265 Y0 GND sky130_fd_pr__nfet_01v8 ad=0.4371 pd=2.81 as=0.1377 ps=1.05 w=0.51 l=0.17
X201 Y0 word324 GND GND sky130_fd_pr__nfet_01v8 ad=0.1377 pd=1.05 as=0.2914 ps=1.87 w=0.51 l=0.17
X202 GND word479 Y6 GND sky130_fd_pr__nfet_01v8 ad=0.2598 pd=1.79 as=0.2193 ps=1.88 w=0.51 l=0.17
X203 Y3 word538 GND GND sky130_fd_pr__nfet_01v8 ad=0.1377 pd=1.05 as=0.2598 ps=1.79 w=0.51 l=0.17
X204 Y7 word926 GND GND sky130_fd_pr__nfet_01v8 ad=0.1377 pd=1.05 as=0.3101 ps=1.945 w=0.51 l=0.17
X205 GND word765 Y7 GND sky130_fd_pr__nfet_01v8 ad=0.3101 pd=1.945 as=0.1377 ps=1.05 w=0.51 l=0.17
X206 Y6 word198 GND GND sky130_fd_pr__nfet_01v8 ad=0.1377 pd=1.05 as=0.3101 ps=1.945 w=0.51 l=0.17
X207 GND word925 Y5 GND sky130_fd_pr__nfet_01v8 ad=0.2598 pd=1.79 as=0.2193 ps=1.88 w=0.51 l=0.17
X208 GND word873 Y1 GND sky130_fd_pr__nfet_01v8 ad=0.2931 pd=1.88 as=0.2193 ps=1.88 w=0.51 l=0.17
X209 Y6 word356 GND GND sky130_fd_pr__nfet_01v8 ad=0.1377 pd=1.05 as=0.3101 ps=1.945 w=0.51 l=0.17
X210 GND word381 Y4 GND sky130_fd_pr__nfet_01v8 ad=0.3101 pd=1.945 as=0.1377 ps=1.05 w=0.51 l=0.17
X211 Y4 word156 GND GND sky130_fd_pr__nfet_01v8 ad=0.1377 pd=1.05 as=0.3101 ps=1.945 w=0.51 l=0.17
X212 GND word699 Y3 GND sky130_fd_pr__nfet_01v8 ad=0.2598 pd=1.79 as=0.1377 ps=1.05 w=0.51 l=0.17
X213 Y0 word306 GND GND sky130_fd_pr__nfet_01v8 ad=0.1377 pd=1.05 as=0.2914 ps=1.87 w=0.51 l=0.17
X214 GND word461 Y6 GND sky130_fd_pr__nfet_01v8 ad=0.2598 pd=1.79 as=0.1377 ps=1.05 w=0.51 l=0.17
X215 Y4 word486 GND GND sky130_fd_pr__nfet_01v8 ad=0.1377 pd=1.05 as=0.3101 ps=1.945 w=0.51 l=0.17
X216 Y3 word418 GND GND sky130_fd_pr__nfet_01v8 ad=0.1377 pd=1.05 as=0.2598 ps=1.79 w=0.51 l=0.17
X217 GND word879 Y6 GND sky130_fd_pr__nfet_01v8 ad=0.3101 pd=1.945 as=0.1377 ps=1.05 w=0.51 l=0.17
X218 GND word363 Y4 GND sky130_fd_pr__nfet_01v8 ad=0.2598 pd=1.79 as=0.1377 ps=1.05 w=0.51 l=0.17
X219 Y0 word572 GND GND sky130_fd_pr__nfet_01v8 ad=0.2244 pd=1.9 as=0.40905 ps=2.7 w=0.51 l=0.17