** sch_path: /home/tydav/magic/circuits/xschem/func_gen_6_wave_tb.sch
**.subckt func_gen_6_wave_tb
V1 VDD GND 1.8
V3 Wave GND pulse 0 1.8 '0.495/ 0.25e6 ' '0.01/0.25e6 ' '0.01/0.25e6 ' '0.49/0.25e6 ' '1/0.25e6 '
V4 Wave1 GND pulse 0 1.8 '0.495/ 0.125e6 ' '0.01/0.125e6 ' '0.01/0.125e6 ' '0.49/0.125e6 ' '1/0.125e6 '
R1 net1 GND 200k m=1
R2 net1 Y0 200k m=1
R3 net2 Y1 200k m=1
R4 net2 net1 100k m=1
R5 net3 Y2 200k m=1
R6 net3 net2 100k m=1
R7 net4 Y3 200k m=1
R8 net4 net3 100k m=1
R9 net5 Y4 200k m=1
R10 net5 net4 100k m=1
R11 net6 Y5 200k m=1
R12 net6 net5 100k m=1
R13 net7 Y6 200k m=1
R14 net7 net6 100k m=1
R15 V0 Y7 200k m=1
R16 V0 net7 100k m=1
C1 V0 GND 200f m=1
V6 Clk GND pulse 0 1.8 '0.495/ 64e6 ' '0.01/64e6 ' '0.01/64e6 ' '0.49/64e6 ' '1/64e6 '
x1 GND GND Y0 Clk Y1 Y2 Y3 Y4 Y5 Y6 Y7 Wave Wave1 func_gen_6
**** begin user architecture code


.control
save all
tran 10n 8u uic
plot V(CLK) V(Wave0)+2 V(Wave1)+4 V(V0)+6
.endc



** opencircuitdesign pdks install
.lib /usr/local/share/pdk/sky130A/libs.tech/ngspice/sky130.lib.spice tt


**** end user architecture code
**.ends

* expanding   symbol:  func_gen_6.sym # of pins=13
** sym_path: /home/tydav/magic/circuits/xschem/func_gen_6.sym
** sch_path: /home/tydav/magic/circuits/xschem/func_gen_6.sch
.subckt func_gen_6 Freq1 Freq0 Y0 CLK Y1 Y2 Y3 Y4 Y5 Y6 Y7 Wave0 Wave1
*.ipin CLK
*.ipin Freq0
*.ipin Freq1
*.opin Y0
*.opin Y1
*.opin Y2
*.opin Y3
*.opin Y4
*.opin Y5
*.opin Y6
*.opin Y7
*.ipin Wave0
*.ipin Wave1
x3 net137 net138 net139 net140 net141 net149 net278 net279 net148 counter_8
x4 Y0 net136 inv
x5 Y1 net135 inv
x6 Y2 net134 inv
x7 Y3 net133 inv
x8 Y4 net132 inv
x9 Y5 net131 inv
x10 Y6 net130 inv
x11 Y7 net129 inv
x12 Freq0 net147 Freq1 net146 net142 net143 net148 net144 net145 mux4
x13 net142 net143 net144 net145 CLK counter_4
x14 net147 Freq0 inv
x15 net146 Freq1 inv
x1 net138 net139 net140 net141 net149 Wave0 Wave1 net137 net1 net2 net3 net4 net5 net6 net7 net8 net9 net10 net11 net12 net13
+ net14 net15 net16 net17 net18 net19 net20 net21 net22 net23 net24 net25 net26 net27 net28 net29 net30 net31 net32 net33 net34 net35
+ net36 net37 net38 net39 net40 net41 net42 net43 net44 net45 net46 net47 net48 net49 net50 net51 net52 net53 net54 net55 net56 net57
+ net58 net59 net60 net61 net62 net63 net64 net65 net66 net67 net68 net69 net70 net71 net72 net73 net74 net75 net76 net77 net78 net79
+ net80 net81 net82 net83 net84 net85 net86 net87 net88 net89 net90 net91 net92 net93 net94 net95 net96 net97 net98 net99 net100 net101
+ net102 net103 net104 net105 net106 net107 net108 net109 net110 net111 net112 net113 net114 net115 net116 net117 net118 net119 net120
+ net121 net122 net123 net124 net125 net126 net127 net128 net150 net151 net152 net153 net154 net155 net156 net157 net158 net159 net160
+ net161 net162 net163 net164 net165 net166 net167 net168 net169 net170 net171 net172 net173 net174 net175 net176 net177 net178 net179
+ net180 net181 net182 net183 net184 net185 net186 net187 net188 net189 net190 net191 net192 net193 net194 net195 net196 net197 net198
+ net199 net200 net201 net202 net203 net204 net205 net206 net207 net208 net209 net210 net211 net212 net213 net214 net215 net216 net217
+ net218 net219 net220 net221 net222 net223 net224 net225 net226 net227 net228 net229 net230 net231 net232 net233 net234 net235 net236
+ net237 net238 net239 net240 net241 net242 net243 net244 net245 net246 net247 net248 net249 net250 net251 net252 net253 net254 net255
+ net256 net257 net258 net259 net260 net261 net262 net263 net264 net265 net266 net267 net268 net269 net270 net271 net272 net273 net274
+ net275 net276 net277 decoder_6
x2 net1 net2 net3 net4 net5 net6 net7 net8 net9 net10 net11 net12 net13 net14 net15 net16 net17 net18 net19 net20 net21 net22
+ net23 net24 net25 net26 net27 net28 net29 net30 net31 net32 net33 net34 net35 net36 net37 net38 net39 net40 net41 net42 net43 net44
+ net45 net46 net47 net48 net49 net50 net51 net52 net53 net54 net55 net56 net57 net58 net59 net60 net61 net62 net63 net64 net65 net66
+ net67 net68 net69 net70 net71 net72 net73 net74 net75 net76 net77 net78 net79 net80 net81 net82 net83 net84 net85 net86 net87 net88
+ net89 net90 net91 net92 net93 net94 net95 net96 net97 net98 net99 net100 net101 net102 net103 net104 net105 net106 net107 net108 net109
+ net110 net111 net112 net113 net114 net115 net116 net117 net118 net119 net120 net121 net122 net123 net124 net125 net126 net127 net128
+ net150 net151 net152 net153 net154 net155 net156 net157 net158 net159 net160 net161 net162 net163 net164 net165 net166 net167 net168
+ net169 net170 net171 net172 net173 net174 net175 net176 net177 net178 net179 net180 net181 net182 net183 net184 net185 net186 net187
+ net188 net189 net190 net191 net192 net193 net194 net195 net196 net197 net198 net199 net200 net201 net202 net203 net204 net205 net206
+ net207 net208 net209 net210 net211 net212 net213 net214 net215 net216 net217 net218 net219 net220 net221 net222 net223 net224 net225
+ net226 net227 net228 net229 net230 net231 net232 net233 net234 net235 net236 net237 net238 net239 net240 net241 net242 net243 net244
+ net245 net246 net247 net248 net249 net250 net251 net252 net253 net254 net255 net256 net257 net258 net259 net260 net261 net262 net263
+ net264 net265 net266 net267 net268 net269 net270 net271 net272 net273 net274 net275 net276 net277 net136 net135 net134 net133 net132
+ net131 net130 net129 memory_6
.ends


* expanding   symbol:  counter_8.sym # of pins=9
** sym_path: /home/tydav/magic/circuits/xschem/counter_8.sym
** sch_path: /home/tydav/magic/circuits/xschem/counter_8.sch
.subckt counter_8 Q0 Q1 Q2 Q3 Q4 Q5 Q6 Q7 CLK
*.ipin CLK
*.opin Q0
*.opin Q1
*.opin Q2
*.opin Q3
*.opin Q4
*.opin Q5
*.opin Q6
*.opin Q7
x1 VDD Q0 CLK net1 net16 tff
x2 net3 Q1 CLK net1 net17 tff
x3 net1 CLK inv
x10 VDD net2 Q0 nand
x11 net3 net2 inv
x4 net5 Q2 CLK net1 net18 tff
x5 net3 net4 Q1 nand
x6 net5 net4 inv
x7 net7 Q3 CLK net1 net19 tff
x8 net5 net6 Q2 nand
x9 net7 net6 inv
x12 net9 Q4 CLK net1 net20 tff
x13 net7 net8 Q3 nand
x14 net9 net8 inv
x15 net11 Q5 CLK net1 net21 tff
x16 net9 net10 Q4 nand
x17 net11 net10 inv
x18 net13 Q6 CLK net1 net22 tff
x19 net11 net12 Q5 nand
x20 net13 net12 inv
x21 net15 Q7 CLK net1 net23 tff
x22 net13 net14 Q6 nand
x23 net15 net14 inv
.ends


* expanding   symbol:  lab1/inv.sym # of pins=2
** sym_path: /home/tydav/magic/library/xschem/lab1/inv.sym
** sch_path: /home/tydav/magic/library/xschem/lab1/inv.sch
.subckt inv Y A
*.ipin A
*.opin Y
XM1 Y A GND GND sky130_fd_pr__nfet_01v8 L=0.15 W=0.5 nf=1 ad='int((nf+1)/2) * W/nf * 0.29' as='int((nf+2)/2) * W/nf * 0.29' pd='2*int((nf+1)/2) * (W/nf + 0.29)'
+ ps='2*int((nf+2)/2) * (W/nf + 0.29)' nrd='0.29 / W' nrs='0.29 / W' sa=0 sb=0 sd=0 mult=1 m=1
XM2 Y A VDD VDD sky130_fd_pr__pfet_01v8 L=0.15 W=1 nf=1 ad='int((nf+1)/2) * W/nf * 0.29' as='int((nf+2)/2) * W/nf * 0.29' pd='2*int((nf+1)/2) * (W/nf + 0.29)'
+ ps='2*int((nf+2)/2) * (W/nf + 0.29)' nrd='0.29 / W' nrs='0.29 / W' sa=0 sb=0 sd=0 mult=1 m=1
.ends


* expanding   symbol:  mux4.sym # of pins=9
** sym_path: /home/tydav/magic/circuits/xschem/mux4.sym
** sch_path: /home/tydav/magic/circuits/xschem/mux4.sch
.subckt mux4 S0 ~S0 S1 ~S1 I0 I1 Y I2 I3
*.ipin I0
*.ipin I1
*.ipin I2
*.ipin I3
*.ipin S0
*.ipin ~S0
*.ipin S1
*.ipin ~S1
*.opin Y
x1 I1 I0 S0 net1 ~S0 mux2
x2 I3 I2 S0 net2 ~S0 mux2
x3 net2 net1 S1 Y ~S1 mux2
.ends


* expanding   symbol:  counter_4.sym # of pins=5
** sym_path: /home/tydav/magic/circuits/xschem/counter_4.sym
** sch_path: /home/tydav/magic/circuits/xschem/counter_4.sch
.subckt counter_4 Q0 Q1 Q2 Q3 CLK
*.ipin CLK
*.opin Q0
*.opin Q1
*.opin Q2
*.opin Q3
x1 VDD Q0 CLK net1 net8 tff
x2 net3 Q1 CLK net1 net9 tff
x3 net1 CLK inv
x10 VDD net2 Q0 nand
x11 net3 net2 inv
x4 net5 Q2 CLK net1 net10 tff
x5 net3 net4 Q1 nand
x6 net5 net4 inv
x7 net7 Q3 CLK net1 net11 tff
x8 net5 net6 Q2 nand
x9 net7 net6 inv
.ends


* expanding   symbol:  decoder_6.sym # of pins=264
** sym_path: /home/tydav/magic/circuits/xschem/decoder_6.sym
** sch_path: /home/tydav/magic/circuits/xschem/decoder_6.sch
.subckt decoder_6 A1 A2 A3 A4 A5 A6 A7 A0 word0 word1 word2 word3 word4 word5 word6 word7 word8 word9 word10 word11 word12 word13
+ word14 word15 word16 word17 word18 word19 word20 word21 word22 word23 word24 word25 word26 word27 word28 word29 word30 word31 word32
+ word33 word34 word35 word36 word37 word38 word39 word40 word41 word42 word43 word44 word45 word46 word47 word48 word49 word50 word51
+ word52 word53 word54 word55 word56 word57 word58 word59 word60 word61 word62 word63 word64 word65 word66 word67 word68 word69 word70
+ word71 word72 word73 word74 word75 word76 word77 word78 word79 word80 word81 word82 word83 word84 word85 word86 word87 word88 word89
+ word90 word91 word92 word93 word94 word95 word96 word97 word98 word99 word100 word101 word102 word103 word104 word105 word106 word107
+ word108 word109 word110 word111 word112 word113 word114 word115 word116 word117 word118 word119 word120 word121 word122 word123 word124
+ word125 word126 word127 word128 word129 word130 word131 word132 word133 word134 word135 word136 word137 word138 word139 word140 word141
+ word142 word143 word144 word145 word146 word147 word148 word149 word150 word151 word152 word153 word154 word155 word156 word157 word158
+ word159 word160 word161 word162 word163 word164 word165 word166 word167 word168 word169 word170 word171 word172 word173 word174 word175
+ word176 word177 word178 word179 word180 word181 word182 word183 word184 word185 word186 word187 word188 word189 word190 word191 word192
+ word193 word194 word195 word196 word197 word198 word199 word200 word201 word202 word203 word204 word205 word206 word207 word208 word209
+ word210 word211 word212 word213 word214 word215 word216 word217 word218 word219 word220 word221 word222 word223 word224 word225 word226
+ word227 word228 word229 word230 word231 word232 word233 word234 word235 word236 word237 word238 word239 word240 word241 word242 word243
+ word244 word245 word246 word247 word248 word249 word250 word251 word252 word253 word254 word255
*.opin word0
*.opin word1
*.opin word2
*.opin word3
*.opin word4
*.opin word5
*.opin word6
*.opin word7
*.opin word8
*.opin word9
*.opin word10
*.opin word11
*.opin word12
*.opin word13
*.opin word14
*.opin word15
*.opin word16
*.opin word17
*.opin word18
*.opin word19
*.opin word20
*.opin word21
*.opin word22
*.opin word23
*.opin word24
*.opin word25
*.opin word26
*.opin word27
*.opin word28
*.opin word29
*.opin word30
*.opin word31
*.opin word32
*.opin word33
*.opin word34
*.opin word35
*.opin word36
*.opin word37
*.opin word38
*.opin word39
*.opin word40
*.opin word41
*.opin word42
*.opin word43
*.opin word44
*.opin word45
*.opin word46
*.opin word47
*.opin word48
*.opin word49
*.opin word50
*.opin word51
*.opin word52
*.opin word53
*.opin word54
*.opin word55
*.opin word56
*.opin word57
*.opin word58
*.opin word59
*.opin word60
*.opin word61
*.opin word62
*.opin word63
*.opin word64
*.opin word65
*.opin word66
*.opin word67
*.opin word68
*.opin word69
*.opin word70
*.opin word71
*.opin word72
*.opin word73
*.opin word74
*.opin word75
*.opin word76
*.opin word77
*.opin word78
*.opin word79
*.opin word80
*.opin word81
*.opin word82
*.opin word83
*.opin word84
*.opin word85
*.opin word86
*.opin word87
*.opin word88
*.opin word89
*.opin word90
*.opin word91
*.opin word92
*.opin word93
*.opin word94
*.opin word95
*.opin word96
*.opin word97
*.opin word98
*.opin word99
*.opin word100
*.opin word101
*.opin word102
*.opin word103
*.opin word104
*.opin word105
*.opin word106
*.opin word107
*.opin word108
*.opin word109
*.opin word110
*.opin word111
*.opin word112
*.opin word113
*.opin word114
*.opin word115
*.opin word116
*.opin word117
*.opin word118
*.opin word119
*.opin word120
*.opin word121
*.opin word122
*.opin word123
*.opin word124
*.opin word125
*.opin word126
*.opin word127
*.opin word128
*.opin word129
*.opin word130
*.opin word131
*.opin word132
*.opin word133
*.opin word134
*.opin word135
*.opin word136
*.opin word137
*.opin word138
*.opin word139
*.opin word140
*.opin word141
*.opin word142
*.opin word143
*.opin word144
*.opin word145
*.opin word146
*.opin word147
*.opin word148
*.opin word149
*.opin word150
*.opin word151
*.opin word152
*.opin word153
*.opin word154
*.opin word155
*.opin word156
*.opin word157
*.opin word158
*.opin word159
*.opin word160
*.opin word161
*.opin word162
*.opin word163
*.opin word164
*.opin word165
*.opin word166
*.opin word167
*.opin word168
*.opin word169
*.opin word170
*.opin word171
*.opin word172
*.opin word173
*.opin word174
*.opin word175
*.opin word176
*.opin word177
*.opin word178
*.opin word179
*.opin word180
*.opin word181
*.opin word182
*.opin word183
*.opin word184
*.opin word185
*.opin word186
*.opin word187
*.opin word188
*.opin word189
*.opin word190
*.opin word191
*.opin word192
*.opin word193
*.opin word194
*.opin word195
*.opin word196
*.opin word197
*.opin word198
*.opin word199
*.opin word200
*.opin word201
*.opin word202
*.opin word203
*.opin word204
*.opin word205
*.opin word206
*.opin word207
*.opin word208
*.opin word209
*.opin word210
*.opin word211
*.opin word212
*.opin word213
*.opin word214
*.opin word215
*.opin word216
*.opin word217
*.opin word218
*.opin word219
*.opin word220
*.opin word221
*.opin word222
*.opin word223
*.opin word224
*.opin word225
*.opin word226
*.opin word227
*.opin word228
*.opin word229
*.opin word230
*.opin word231
*.opin word232
*.opin word233
*.opin word234
*.opin word235
*.opin word236
*.opin word237
*.opin word238
*.opin word239
*.opin word240
*.opin word241
*.opin word242
*.opin word243
*.opin word244
*.opin word245
*.opin word246
*.opin word247
*.opin word248
*.opin word249
*.opin word250
*.opin word251
*.opin word252
*.opin word253
*.opin word254
*.opin word255
*.ipin A0
*.ipin A1
*.ipin A2
*.ipin A3
*.ipin A4
*.ipin A5
*.ipin A6
*.ipin A7
XM0 word0 A7 GND GND sky130_fd_pr__nfet_01v8 L=0.17 W=0.43 nf=1 ad='int((nf+1)/2) * W/nf * 0.29' as='int((nf+2)/2) * W/nf * 0.29' pd='2*int((nf+1)/2) * (W/nf + 0.29)'
+ ps='2*int((nf+2)/2) * (W/nf + 0.29)' nrd='0.29 / W' nrs='0.29 / W' sa=0 sb=0 sd=0 mult=1 m=1
XM1 word0 A6 GND GND sky130_fd_pr__nfet_01v8 L=0.17 W=0.43 nf=1 ad='int((nf+1)/2) * W/nf * 0.29' as='int((nf+2)/2) * W/nf * 0.29' pd='2*int((nf+1)/2) * (W/nf + 0.29)'
+ ps='2*int((nf+2)/2) * (W/nf + 0.29)' nrd='0.29 / W' nrs='0.29 / W' sa=0 sb=0 sd=0 mult=1 m=1
XM2 word0 A5 GND GND sky130_fd_pr__nfet_01v8 L=0.17 W=0.43 nf=1 ad='int((nf+1)/2) * W/nf * 0.29' as='int((nf+2)/2) * W/nf * 0.29' pd='2*int((nf+1)/2) * (W/nf + 0.29)'
+ ps='2*int((nf+2)/2) * (W/nf + 0.29)' nrd='0.29 / W' nrs='0.29 / W' sa=0 sb=0 sd=0 mult=1 m=1
XM3 word0 A4 GND GND sky130_fd_pr__nfet_01v8 L=0.17 W=0.43 nf=1 ad='int((nf+1)/2) * W/nf * 0.29' as='int((nf+2)/2) * W/nf * 0.29' pd='2*int((nf+1)/2) * (W/nf + 0.29)'
+ ps='2*int((nf+2)/2) * (W/nf + 0.29)' nrd='0.29 / W' nrs='0.29 / W' sa=0 sb=0 sd=0 mult=1 m=1
XM4 word0 A3 GND GND sky130_fd_pr__nfet_01v8 L=0.17 W=0.43 nf=1 ad='int((nf+1)/2) * W/nf * 0.29' as='int((nf+2)/2) * W/nf * 0.29' pd='2*int((nf+1)/2) * (W/nf + 0.29)'
+ ps='2*int((nf+2)/2) * (W/nf + 0.29)' nrd='0.29 / W' nrs='0.29 / W' sa=0 sb=0 sd=0 mult=1 m=1
XM5 word0 A2 GND GND sky130_fd_pr__nfet_01v8 L=0.17 W=0.43 nf=1 ad='int((nf+1)/2) * W/nf * 0.29' as='int((nf+2)/2) * W/nf * 0.29' pd='2*int((nf+1)/2) * (W/nf + 0.29)'
+ ps='2*int((nf+2)/2) * (W/nf + 0.29)' nrd='0.29 / W' nrs='0.29 / W' sa=0 sb=0 sd=0 mult=1 m=1
XM6 word0 A1 GND GND sky130_fd_pr__nfet_01v8 L=0.17 W=0.43 nf=1 ad='int((nf+1)/2) * W/nf * 0.29' as='int((nf+2)/2) * W/nf * 0.29' pd='2*int((nf+1)/2) * (W/nf + 0.29)'
+ ps='2*int((nf+2)/2) * (W/nf + 0.29)' nrd='0.29 / W' nrs='0.29 / W' sa=0 sb=0 sd=0 mult=1 m=1
XM7 word0 A0 GND GND sky130_fd_pr__nfet_01v8 L=0.17 W=0.43 nf=1 ad='int((nf+1)/2) * W/nf * 0.29' as='int((nf+2)/2) * W/nf * 0.29' pd='2*int((nf+1)/2) * (W/nf + 0.29)'
+ ps='2*int((nf+2)/2) * (W/nf + 0.29)' nrd='0.29 / W' nrs='0.29 / W' sa=0 sb=0 sd=0 mult=1 m=1
XM8 word0 A0 net9 VDD sky130_fd_pr__pfet_01v8 L=0.17 W=0.43 nf=1 ad='int((nf+1)/2) * W/nf * 0.29' as='int((nf+2)/2) * W/nf * 0.29'
+ pd='2*int((nf+1)/2) * (W/nf + 0.29)' ps='2*int((nf+2)/2) * (W/nf + 0.29)' nrd='0.29 / W' nrs='0.29 / W' sa=0 sb=0 sd=0 mult=1 m=1
XM9 net9 A1 net11 VDD sky130_fd_pr__pfet_01v8 L=0.17 W=0.43 nf=1 ad='int((nf+1)/2) * W/nf * 0.29' as='int((nf+2)/2) * W/nf * 0.29'
+ pd='2*int((nf+1)/2) * (W/nf + 0.29)' ps='2*int((nf+2)/2) * (W/nf + 0.29)' nrd='0.29 / W' nrs='0.29 / W' sa=0 sb=0 sd=0 mult=1 m=1
XM10 net11 A2 net13 VDD sky130_fd_pr__pfet_01v8 L=0.17 W=0.43 nf=1 ad='int((nf+1)/2) * W/nf * 0.29' as='int((nf+2)/2) * W/nf * 0.29'
+ pd='2*int((nf+1)/2) * (W/nf + 0.29)' ps='2*int((nf+2)/2) * (W/nf + 0.29)' nrd='0.29 / W' nrs='0.29 / W' sa=0 sb=0 sd=0 mult=1 m=1
XM11 net13 A3 net15 VDD sky130_fd_pr__pfet_01v8 L=0.17 W=0.43 nf=1 ad='int((nf+1)/2) * W/nf * 0.29' as='int((nf+2)/2) * W/nf * 0.29'
+ pd='2*int((nf+1)/2) * (W/nf + 0.29)' ps='2*int((nf+2)/2) * (W/nf + 0.29)' nrd='0.29 / W' nrs='0.29 / W' sa=0 sb=0 sd=0 mult=1 m=1
XM12 net15 A4 net17 VDD sky130_fd_pr__pfet_01v8 L=0.17 W=0.43 nf=1 ad='int((nf+1)/2) * W/nf * 0.29' as='int((nf+2)/2) * W/nf * 0.29'
+ pd='2*int((nf+1)/2) * (W/nf + 0.29)' ps='2*int((nf+2)/2) * (W/nf + 0.29)' nrd='0.29 / W' nrs='0.29 / W' sa=0 sb=0 sd=0 mult=1 m=1
XM13 net17 A5 net19 VDD sky130_fd_pr__pfet_01v8 L=0.17 W=0.43 nf=1 ad='int((nf+1)/2) * W/nf * 0.29' as='int((nf+2)/2) * W/nf * 0.29'
+ pd='2*int((nf+1)/2) * (W/nf + 0.29)' ps='2*int((nf+2)/2) * (W/nf + 0.29)' nrd='0.29 / W' nrs='0.29 / W' sa=0 sb=0 sd=0 mult=1 m=1
XM14 net19 A6 net21 VDD sky130_fd_pr__pfet_01v8 L=0.17 W=0.43 nf=1 ad='int((nf+1)/2) * W/nf * 0.29' as='int((nf+2)/2) * W/nf * 0.29'
+ pd='2*int((nf+1)/2) * (W/nf + 0.29)' ps='2*int((nf+2)/2) * (W/nf + 0.29)' nrd='0.29 / W' nrs='0.29 / W' sa=0 sb=0 sd=0 mult=1 m=1
XM15 net21 A7 VDD VDD sky130_fd_pr__pfet_01v8 L=0.17 W=0.43 nf=1 ad='int((nf+1)/2) * W/nf * 0.29' as='int((nf+2)/2) * W/nf * 0.29'
+ pd='2*int((nf+1)/2) * (W/nf + 0.29)' ps='2*int((nf+2)/2) * (W/nf + 0.29)' nrd='0.29 / W' nrs='0.29 / W' sa=0 sb=0 sd=0 mult=1 m=1
XM16 word1 A7 GND GND sky130_fd_pr__nfet_01v8 L=0.17 W=0.43 nf=1 ad='int((nf+1)/2) * W/nf * 0.29' as='int((nf+2)/2) * W/nf * 0.29'
+ pd='2*int((nf+1)/2) * (W/nf + 0.29)' ps='2*int((nf+2)/2) * (W/nf + 0.29)' nrd='0.29 / W' nrs='0.29 / W' sa=0 sb=0 sd=0 mult=1 m=1
XM17 word1 A6 GND GND sky130_fd_pr__nfet_01v8 L=0.17 W=0.43 nf=1 ad='int((nf+1)/2) * W/nf * 0.29' as='int((nf+2)/2) * W/nf * 0.29'
+ pd='2*int((nf+1)/2) * (W/nf + 0.29)' ps='2*int((nf+2)/2) * (W/nf + 0.29)' nrd='0.29 / W' nrs='0.29 / W' sa=0 sb=0 sd=0 mult=1 m=1
XM18 word1 A5 GND GND sky130_fd_pr__nfet_01v8 L=0.17 W=0.43 nf=1 ad='int((nf+1)/2) * W/nf * 0.29' as='int((nf+2)/2) * W/nf * 0.29'
+ pd='2*int((nf+1)/2) * (W/nf + 0.29)' ps='2*int((nf+2)/2) * (W/nf + 0.29)' nrd='0.29 / W' nrs='0.29 / W' sa=0 sb=0 sd=0 mult=1 m=1
XM19 word1 A4 GND GND sky130_fd_pr__nfet_01v8 L=0.17 W=0.43 nf=1 ad='int((nf+1)/2) * W/nf * 0.29' as='int((nf+2)/2) * W/nf * 0.29'
+ pd='2*int((nf+1)/2) * (W/nf + 0.29)' ps='2*int((nf+2)/2) * (W/nf + 0.29)' nrd='0.29 / W' nrs='0.29 / W' sa=0 sb=0 sd=0 mult=1 m=1
XM20 word1 A3 GND GND sky130_fd_pr__nfet_01v8 L=0.17 W=0.43 nf=1 ad='int((nf+1)/2) * W/nf * 0.29' as='int((nf+2)/2) * W/nf * 0.29'
+ pd='2*int((nf+1)/2) * (W/nf + 0.29)' ps='2*int((nf+2)/2) * (W/nf + 0.29)' nrd='0.29 / W' nrs='0.29 / W' sa=0 sb=0 sd=0 mult=1 m=1
XM21 word1 A2 GND GND sky130_fd_pr__nfet_01v8 L=0.17 W=0.43 nf=1 ad='int((nf+1)/2) * W/nf * 0.29' as='int((nf+2)/2) * W/nf * 0.29'
+ pd='2*int((nf+1)/2) * (W/nf + 0.29)' ps='2*int((nf+2)/2) * (W/nf + 0.29)' nrd='0.29 / W' nrs='0.29 / W' sa=0 sb=0 sd=0 mult=1 m=1
XM22 word1 A1 GND GND sky130_fd_pr__nfet_01v8 L=0.17 W=0.43 nf=1 ad='int((nf+1)/2) * W/nf * 0.29' as='int((nf+2)/2) * W/nf * 0.29'
+ pd='2*int((nf+1)/2) * (W/nf + 0.29)' ps='2*int((nf+2)/2) * (W/nf + 0.29)' nrd='0.29 / W' nrs='0.29 / W' sa=0 sb=0 sd=0 mult=1 m=1
XM23 word1 net8 GND GND sky130_fd_pr__nfet_01v8 L=0.17 W=0.43 nf=1 ad='int((nf+1)/2) * W/nf * 0.29' as='int((nf+2)/2) * W/nf * 0.29'
+ pd='2*int((nf+1)/2) * (W/nf + 0.29)' ps='2*int((nf+2)/2) * (W/nf + 0.29)' nrd='0.29 / W' nrs='0.29 / W' sa=0 sb=0 sd=0 mult=1 m=1
XM24 word1 net10 net24 VDD sky130_fd_pr__pfet_01v8 L=0.17 W=0.43 nf=1 ad='int((nf+1)/2) * W/nf * 0.29' as='int((nf+2)/2) * W/nf * 0.29'
+ pd='2*int((nf+1)/2) * (W/nf + 0.29)' ps='2*int((nf+2)/2) * (W/nf + 0.29)' nrd='0.29 / W' nrs='0.29 / W' sa=0 sb=0 sd=0 mult=1 m=1
XM25 net24 A1 net25 VDD sky130_fd_pr__pfet_01v8 L=0.17 W=0.43 nf=1 ad='int((nf+1)/2) * W/nf * 0.29' as='int((nf+2)/2) * W/nf * 0.29'
+ pd='2*int((nf+1)/2) * (W/nf + 0.29)' ps='2*int((nf+2)/2) * (W/nf + 0.29)' nrd='0.29 / W' nrs='0.29 / W' sa=0 sb=0 sd=0 mult=1 m=1
XM26 net25 A2 net26 VDD sky130_fd_pr__pfet_01v8 L=0.17 W=0.43 nf=1 ad='int((nf+1)/2) * W/nf * 0.29' as='int((nf+2)/2) * W/nf * 0.29'
+ pd='2*int((nf+1)/2) * (W/nf + 0.29)' ps='2*int((nf+2)/2) * (W/nf + 0.29)' nrd='0.29 / W' nrs='0.29 / W' sa=0 sb=0 sd=0 mult=1 m=1
XM27 net26 A3 net27 VDD sky130_fd_pr__pfet_01v8 L=0.17 W=0.43 nf=1 ad='int((nf+1)/2) * W/nf * 0.29' as='int((nf+2)/2) * W/nf * 0.29'
+ pd='2*int((nf+1)/2) * (W/nf + 0.29)' ps='2*int((nf+2)/2) * (W/nf + 0.29)' nrd='0.29 / W' nrs='0.29 / W' sa=0 sb=0 sd=0 mult=1 m=1
XM28 net27 A4 net28 VDD sky130_fd_pr__pfet_01v8 L=0.17 W=0.43 nf=1 ad='int((nf+1)/2) * W/nf * 0.29' as='int((nf+2)/2) * W/nf * 0.29'
+ pd='2*int((nf+1)/2) * (W/nf + 0.29)' ps='2*int((nf+2)/2) * (W/nf + 0.29)' nrd='0.29 / W' nrs='0.29 / W' sa=0 sb=0 sd=0 mult=1 m=1
XM29 net28 A5 net29 VDD sky130_fd_pr__pfet_01v8 L=0.17 W=0.43 nf=1 ad='int((nf+1)/2) * W/nf * 0.29' as='int((nf+2)/2) * W/nf * 0.29'
+ pd='2*int((nf+1)/2) * (W/nf + 0.29)' ps='2*int((nf+2)/2) * (W/nf + 0.29)' nrd='0.29 / W' nrs='0.29 / W' sa=0 sb=0 sd=0 mult=1 m=1
XM30 net29 A6 net30 VDD sky130_fd_pr__pfet_01v8 L=0.17 W=0.43 nf=1 ad='int((nf+1)/2) * W/nf * 0.29' as='int((nf+2)/2) * W/nf * 0.29'
+ pd='2*int((nf+1)/2) * (W/nf + 0.29)' ps='2*int((nf+2)/2) * (W/nf + 0.29)' nrd='0.29 / W' nrs='0.29 / W' sa=0 sb=0 sd=0 mult=1 m=1
XM31 net30 A7 VDD VDD sky130_fd_pr__pfet_01v8 L=0.17 W=0.43 nf=1 ad='int((nf+1)/2) * W/nf * 0.29' as='int((nf+2)/2) * W/nf * 0.29'
+ pd='2*int((nf+1)/2) * (W/nf + 0.29)' ps='2*int((nf+2)/2) * (W/nf + 0.29)' nrd='0.29 / W' nrs='0.29 / W' sa=0 sb=0 sd=0 mult=1 m=1
XM32 word2 A7 GND GND sky130_fd_pr__nfet_01v8 L=0.17 W=0.43 nf=1 ad='int((nf+1)/2) * W/nf * 0.29' as='int((nf+2)/2) * W/nf * 0.29'
+ pd='2*int((nf+1)/2) * (W/nf + 0.29)' ps='2*int((nf+2)/2) * (W/nf + 0.29)' nrd='0.29 / W' nrs='0.29 / W' sa=0 sb=0 sd=0 mult=1 m=1
XM33 word2 A6 GND GND sky130_fd_pr__nfet_01v8 L=0.17 W=0.43 nf=1 ad='int((nf+1)/2) * W/nf * 0.29' as='int((nf+2)/2) * W/nf * 0.29'
+ pd='2*int((nf+1)/2) * (W/nf + 0.29)' ps='2*int((nf+2)/2) * (W/nf + 0.29)' nrd='0.29 / W' nrs='0.29 / W' sa=0 sb=0 sd=0 mult=1 m=1
XM34 word2 A5 GND GND sky130_fd_pr__nfet_01v8 L=0.17 W=0.43 nf=1 ad='int((nf+1)/2) * W/nf * 0.29' as='int((nf+2)/2) * W/nf * 0.29'
+ pd='2*int((nf+1)/2) * (W/nf + 0.29)' ps='2*int((nf+2)/2) * (W/nf + 0.29)' nrd='0.29 / W' nrs='0.29 / W' sa=0 sb=0 sd=0 mult=1 m=1
XM35 word2 A4 GND GND sky130_fd_pr__nfet_01v8 L=0.17 W=0.43 nf=1 ad='int((nf+1)/2) * W/nf * 0.29' as='int((nf+2)/2) * W/nf * 0.29'
+ pd='2*int((nf+1)/2) * (W/nf + 0.29)' ps='2*int((nf+2)/2) * (W/nf + 0.29)' nrd='0.29 / W' nrs='0.29 / W' sa=0 sb=0 sd=0 mult=1 m=1
XM36 word2 A3 GND GND sky130_fd_pr__nfet_01v8 L=0.17 W=0.43 nf=1 ad='int((nf+1)/2) * W/nf * 0.29' as='int((nf+2)/2) * W/nf * 0.29'
+ pd='2*int((nf+1)/2) * (W/nf + 0.29)' ps='2*int((nf+2)/2) * (W/nf + 0.29)' nrd='0.29 / W' nrs='0.29 / W' sa=0 sb=0 sd=0 mult=1 m=1
XM37 word2 A2 GND GND sky130_fd_pr__nfet_01v8 L=0.17 W=0.43 nf=1 ad='int((nf+1)/2) * W/nf * 0.29' as='int((nf+2)/2) * W/nf * 0.29'
+ pd='2*int((nf+1)/2) * (W/nf + 0.29)' ps='2*int((nf+2)/2) * (W/nf + 0.29)' nrd='0.29 / W' nrs='0.29 / W' sa=0 sb=0 sd=0 mult=1 m=1
XM38 word2 net7 GND GND sky130_fd_pr__nfet_01v8 L=0.17 W=0.43 nf=1 ad='int((nf+1)/2) * W/nf * 0.29' as='int((nf+2)/2) * W/nf * 0.29'
+ pd='2*int((nf+1)/2) * (W/nf + 0.29)' ps='2*int((nf+2)/2) * (W/nf + 0.29)' nrd='0.29 / W' nrs='0.29 / W' sa=0 sb=0 sd=0 mult=1 m=1
XM39 word2 A0 GND GND sky130_fd_pr__nfet_01v8 L=0.17 W=0.43 nf=1 ad='int((nf+1)/2) * W/nf * 0.29' as='int((nf+2)/2) * W/nf * 0.29'
+ pd='2*int((nf+1)/2) * (W/nf + 0.29)' ps='2*int((nf+2)/2) * (W/nf + 0.29)' nrd='0.29 / W' nrs='0.29 / W' sa=0 sb=0 sd=0 mult=1 m=1
XM40 word2 A0 net31 VDD sky130_fd_pr__pfet_01v8 L=0.17 W=0.43 nf=1 ad='int((nf+1)/2) * W/nf * 0.29' as='int((nf+2)/2) * W/nf * 0.29'
+ pd='2*int((nf+1)/2) * (W/nf + 0.29)' ps='2*int((nf+2)/2) * (W/nf + 0.29)' nrd='0.29 / W' nrs='0.29 / W' sa=0 sb=0 sd=0 mult=1 m=1
XM41 net31 net12 net32 VDD sky130_fd_pr__pfet_01v8 L=0.17 W=0.43 nf=1 ad='int((nf+1)/2) * W/nf * 0.29' as='int((nf+2)/2) * W/nf * 0.29'
+ pd='2*int((nf+1)/2) * (W/nf + 0.29)' ps='2*int((nf+2)/2) * (W/nf + 0.29)' nrd='0.29 / W' nrs='0.29 / W' sa=0 sb=0 sd=0 mult=1 m=1
XM42 net32 A2 net33 VDD sky130_fd_pr__pfet_01v8 L=0.17 W=0.43 nf=1 ad='int((nf+1)/2) * W/nf * 0.29' as='int((nf+2)/2) * W/nf * 0.29'
+ pd='2*int((nf+1)/2) * (W/nf + 0.29)' ps='2*int((nf+2)/2) * (W/nf + 0.29)' nrd='0.29 / W' nrs='0.29 / W' sa=0 sb=0 sd=0 mult=1 m=1
XM43 net33 A3 net34 VDD sky130_fd_pr__pfet_01v8 L=0.17 W=0.43 nf=1 ad='int((nf+1)/2) * W/nf * 0.29' as='int((nf+2)/2) * W/nf * 0.29'
+ pd='2*int((nf+1)/2) * (W/nf + 0.29)' ps='2*int((nf+2)/2) * (W/nf + 0.29)' nrd='0.29 / W' nrs='0.29 / W' sa=0 sb=0 sd=0 mult=1 m=1
XM44 net34 A4 net35 VDD sky130_fd_pr__pfet_01v8 L=0.17 W=0.43 nf=1 ad='int((nf+1)/2) * W/nf * 0.29' as='int((nf+2)/2) * W/nf * 0.29'
+ pd='2*int((nf+1)/2) * (W/nf + 0.29)' ps='2*int((nf+2)/2) * (W/nf + 0.29)' nrd='0.29 / W' nrs='0.29 / W' sa=0 sb=0 sd=0 mult=1 m=1
XM45 net35 A5 net36 VDD sky130_fd_pr__pfet_01v8 L=0.17 W=0.43 nf=1 ad='int((nf+1)/2) * W/nf * 0.29' as='int((nf+2)/2) * W/nf * 0.29'
+ pd='2*int((nf+1)/2) * (W/nf + 0.29)' ps='2*int((nf+2)/2) * (W/nf + 0.29)' nrd='0.29 / W' nrs='0.29 / W' sa=0 sb=0 sd=0 mult=1 m=1
XM46 net36 A6 net37 VDD sky130_fd_pr__pfet_01v8 L=0.17 W=0.43 nf=1 ad='int((nf+1)/2) * W/nf * 0.29' as='int((nf+2)/2) * W/nf * 0.29'
+ pd='2*int((nf+1)/2) * (W/nf + 0.29)' ps='2*int((nf+2)/2) * (W/nf + 0.29)' nrd='0.29 / W' nrs='0.29 / W' sa=0 sb=0 sd=0 mult=1 m=1
XM47 net37 A7 VDD VDD sky130_fd_pr__pfet_01v8 L=0.17 W=0.43 nf=1 ad='int((nf+1)/2) * W/nf * 0.29' as='int((nf+2)/2) * W/nf * 0.29'
+ pd='2*int((nf+1)/2) * (W/nf + 0.29)' ps='2*int((nf+2)/2) * (W/nf + 0.29)' nrd='0.29 / W' nrs='0.29 / W' sa=0 sb=0 sd=0 mult=1 m=1
XM48 word3 A7 GND GND sky130_fd_pr__nfet_01v8 L=0.17 W=0.43 nf=1 ad='int((nf+1)/2) * W/nf * 0.29' as='int((nf+2)/2) * W/nf * 0.29'
+ pd='2*int((nf+1)/2) * (W/nf + 0.29)' ps='2*int((nf+2)/2) * (W/nf + 0.29)' nrd='0.29 / W' nrs='0.29 / W' sa=0 sb=0 sd=0 mult=1 m=1
XM49 word3 A6 GND GND sky130_fd_pr__nfet_01v8 L=0.17 W=0.43 nf=1 ad='int((nf+1)/2) * W/nf * 0.29' as='int((nf+2)/2) * W/nf * 0.29'
+ pd='2*int((nf+1)/2) * (W/nf + 0.29)' ps='2*int((nf+2)/2) * (W/nf + 0.29)' nrd='0.29 / W' nrs='0.29 / W' sa=0 sb=0 sd=0 mult=1 m=1
XM50 word3 A5 GND GND sky130_fd_pr__nfet_01v8 L=0.17 W=0.43 nf=1 ad='int((nf+1)/2) * W/nf * 0.29' as='int((nf+2)/2) * W/nf * 0.29'
+ pd='2*int((nf+1)/2) * (W/nf + 0.29)' ps='2*int((nf+2)/2) * (W/nf + 0.29)' nrd='0.29 / W' nrs='0.29 / W' sa=0 sb=0 sd=0 mult=1 m=1
XM51 word3 A4 GND GND sky130_fd_pr__nfet_01v8 L=0.17 W=0.43 nf=1 ad='int((nf+1)/2) * W/nf * 0.29' as='int((nf+2)/2) * W/nf * 0.29'
+ pd='2*int((nf+1)/2) * (W/nf + 0.29)' ps='2*int((nf+2)/2) * (W/nf + 0.29)' nrd='0.29 / W' nrs='0.29 / W' sa=0 sb=0 sd=0 mult=1 m=1
XM52 word3 A3 GND GND sky130_fd_pr__nfet_01v8 L=0.17 W=0.43 nf=1 ad='int((nf+1)/2) * W/nf * 0.29' as='int((nf+2)/2) * W/nf * 0.29'
+ pd='2*int((nf+1)/2) * (W/nf + 0.29)' ps='2*int((nf+2)/2) * (W/nf + 0.29)' nrd='0.29 / W' nrs='0.29 / W' sa=0 sb=0 sd=0 mult=1 m=1
XM53 word3 A2 GND GND sky130_fd_pr__nfet_01v8 L=0.17 W=0.43 nf=1 ad='int((nf+1)/2) * W/nf * 0.29' as='int((nf+2)/2) * W/nf * 0.29'
+ pd='2*int((nf+1)/2) * (W/nf + 0.29)' ps='2*int((nf+2)/2) * (W/nf + 0.29)' nrd='0.29 / W' nrs='0.29 / W' sa=0 sb=0 sd=0 mult=1 m=1
XM54 word3 net7 GND GND sky130_fd_pr__nfet_01v8 L=0.17 W=0.43 nf=1 ad='int((nf+1)/2) * W/nf * 0.29' as='int((nf+2)/2) * W/nf * 0.29'
+ pd='2*int((nf+1)/2) * (W/nf + 0.29)' ps='2*int((nf+2)/2) * (W/nf + 0.29)' nrd='0.29 / W' nrs='0.29 / W' sa=0 sb=0 sd=0 mult=1 m=1
XM55 word3 net8 GND GND sky130_fd_pr__nfet_01v8 L=0.17 W=0.43 nf=1 ad='int((nf+1)/2) * W/nf * 0.29' as='int((nf+2)/2) * W/nf * 0.29'
+ pd='2*int((nf+1)/2) * (W/nf + 0.29)' ps='2*int((nf+2)/2) * (W/nf + 0.29)' nrd='0.29 / W' nrs='0.29 / W' sa=0 sb=0 sd=0 mult=1 m=1
XM56 word3 net10 net38 VDD sky130_fd_pr__pfet_01v8 L=0.17 W=0.43 nf=1 ad='int((nf+1)/2) * W/nf * 0.29' as='int((nf+2)/2) * W/nf * 0.29'
+ pd='2*int((nf+1)/2) * (W/nf + 0.29)' ps='2*int((nf+2)/2) * (W/nf + 0.29)' nrd='0.29 / W' nrs='0.29 / W' sa=0 sb=0 sd=0 mult=1 m=1
XM57 net38 net12 net39 VDD sky130_fd_pr__pfet_01v8 L=0.17 W=0.43 nf=1 ad='int((nf+1)/2) * W/nf * 0.29' as='int((nf+2)/2) * W/nf * 0.29'
+ pd='2*int((nf+1)/2) * (W/nf + 0.29)' ps='2*int((nf+2)/2) * (W/nf + 0.29)' nrd='0.29 / W' nrs='0.29 / W' sa=0 sb=0 sd=0 mult=1 m=1
XM58 net39 A2 net40 VDD sky130_fd_pr__pfet_01v8 L=0.17 W=0.43 nf=1 ad='int((nf+1)/2) * W/nf * 0.29' as='int((nf+2)/2) * W/nf * 0.29'
+ pd='2*int((nf+1)/2) * (W/nf + 0.29)' ps='2*int((nf+2)/2) * (W/nf + 0.29)' nrd='0.29 / W' nrs='0.29 / W' sa=0 sb=0 sd=0 mult=1 m=1
XM59 net40 A3 net41 VDD sky130_fd_pr__pfet_01v8 L=0.17 W=0.43 nf=1 ad='int((nf+1)/2) * W/nf * 0.29' as='int((nf+2)/2) * W/nf * 0.29'
+ pd='2*int((nf+1)/2) * (W/nf + 0.29)' ps='2*int((nf+2)/2) * (W/nf + 0.29)' nrd='0.29 / W' nrs='0.29 / W' sa=0 sb=0 sd=0 mult=1 m=1
XM60 net41 A4 net42 VDD sky130_fd_pr__pfet_01v8 L=0.17 W=0.43 nf=1 ad='int((nf+1)/2) * W/nf * 0.29' as='int((nf+2)/2) * W/nf * 0.29'
+ pd='2*int((nf+1)/2) * (W/nf + 0.29)' ps='2*int((nf+2)/2) * (W/nf + 0.29)' nrd='0.29 / W' nrs='0.29 / W' sa=0 sb=0 sd=0 mult=1 m=1